LTspice 24.1.10 for Windows
Circuit: C:\Users\luchi\Desktop\LTspice sims\Sintesis de redes\Lab4_simPasaBanda.net
Start Time: Thu Feb 12 18:39:06 2026
solver = Normal
Maximum thread count: 8
tnom = 27
temp = 27
method = trap
Early termination of direct N-R iteration.
Direct Newton iteration failed to find .op point.  (Use ".option noopiter" to skip.)
Starting Gmin stepping
Gmin = 10
vernier = 0.5
Gmin = 1.67772
vernier = 0.25
vernier = 0.125
vernier = 0.0625
vernier = 0.03125
Gmin = 1.56679
vernier = 0.015625
vernier = 0.0078125
vernier = 0.00390625
vernier = 0.00195312
Gmin = 1.55917
vernier = 0.000976562
vernier = 0.000488281
Gmin = 0
Gmin stepping failed

Starting source stepping with srcstepmethod=0
Source Step = 3.0303%
Source Step = 33.3333%
Source Step = 63.6364%
Source Step = 93.9394%
Source stepping succeeded in finding the operating point.

Total elapsed time: 0.391 seconds.

Files loaded:
C:\Users\luchi\Desktop\LTspice sims\Sintesis de redes\Lab4_simPasaBanda.net
C:\Users\luchi\Desktop\LTspice sims\Sintesis de redes\LM324.lib

